xlsx
csv
xls
pdf
bak
RAW
log
logs
bat
txt
inc
conf
config
env
tar
pem
doc
docx
cfg
kdb
kdbx
ini
git
htaccess
zip
7z
gz
tgz
rtf
in
xsd
pcmcfg
bkf
bkp
ora
inf
reg
backup
pcf
old
pot
rdp
pst
ns1
hst
dca
cdx
ccm
dbf
qbw
err
blt
yaml
ctl
ctt